lehigh_full_1_doug.dss
clear
set defaultbasefrequency=60
new object=circuit.lehigh basekv=115 pu=1.0001 phases=3 bus1=sourcebus angle=30 mvasc3=20000 mvasc1=21000
edit object=vsource.source basekv=115 bus1=sourcebus.1.2.3 pu=1.00 r1=0 x1=0.0001 r0=0 x0=0.0001
new object=vsource.secondsource basekv=4.16 bus1=680.1.2.3 pu=1.00 r1=0 x1=0.0001 r0=0 x0=0.0001
new object=transformer.sub phases=3 windings=2 xhl=0.008 buses=[sourcebus.1.2.3,650.1.2.3] conns=[delta,wye] kvs=[115,4.16] kvas=[5000,5000] %rs=[0.0005,0.0005]
new object=transformer.reg1 phases=1 bank=reg1 xhl=0.01 kvas=[1666,1666] buses=[650.1,rg60.1] kvs=[2.4,2.4] %loadloss=0.01
new object=regcontrol.reg1 transformer=reg1 winding=2 vreg=121 band=2 ptratio=20 ctprim=700 r=3 x=9
new object=transformer.reg2 phases=1 bank=reg1 xhl=0.01 kvas=[1666,1666] buses=[650.2,rg60.2] kvs=[2.4,2.4] %loadloss=0.01
new object=regcontrol.reg2 transformer=reg2 winding=2 vreg=121 band=2 ptratio=20 ctprim=700 r=3 x=9
new object=transformer.reg3 phases=1 bank=reg1 xhl=0.01 kvas=[1666,1666] buses=[650.3,rg60.3] kvs=[2.4,2.4] %loadloss=0.01
new object=regcontrol.reg3 transformer=reg3 winding=2 vreg=121 band=2 ptratio=20 ctprim=700 r=3 x=9
new object=transformer.xfm1 phases=3 windings=2 xhl=2 buses=[633.1.2.3,634.1.2.3] conns=[wye,wye] kvs=[4.16,0.480] kvas=[500,500] %rs=[0.55,0.55] xht=1 xlt=1
new object=linecode.mtx601 nphases=3 basefreq=60 rmatrix=[0.3465|0.1560,0.3375|0.1580,0.1535,0.3414] xmatrix=[1.0179|0.5017,1.0478|0.4236,0.3849,1.0348] units=mi
new object=linecode.mtx602 nphases=3 basefreq=60 rmatrix=[0.7526|0.1580,0.7475|0.1560,0.1535,0.7436] xmatrix=[1.1814|0.4236,1.1983|0.5017,0.3849,1.2112] units=mi
new object=linecode.mtx603 nphases=2 basefreq=60 rmatrix=[1.3238|0.2066,1.3294] xmatrix=[1.3569|0.4591,1.3471] units=mi
new object=linecode.mtx604 nphases=2 basefreq=60 rmatrix=[1.3238|0.2066,1.3294] xmatrix=[1.3569|0.4591,1.3471] units=mi
new object=linecode.mtx605 nphases=1 basefreq=60 rmatrix=[1.3292] xmatrix=[1.3475] units=mi
new object=linecode.mtx606 nphases=3 units=mi rmatrix=[0.791721|0.318476,0.781649|0.28345,0.318476,0.791721] xmatrix=[0.438352|0.0276838,0.396697|-0.0184204,0.0276838,0.438352] cmatrix=[383.948|0,383.948|0,0,383.948]
new object=linecode.mtx607 nphases=1 basefreq=60 rmatrix=[1.3425] xmatrix=[0.5124] cmatrix=[236] units=mi
new object=loadshape.solar_634_shape npts=8760 interval=1 useactual=yes mult=[0.0,0.0,0.0,0.0,0.0,0.0,0.0,0.0,2.4533563278850763,7.4381420045661875,10.49969680399218,32.26439878979507,7.398944850034759,17.290121894334124,25.866587821071192,27.848614430123448,13.914668570504816,0.9224182840961308,0.0,0.0,0.0,0.0,0.0,0.0,0.0,0.0,0.0,0.0,0.0,0.0,0.0,0.0,6.437329411407203,16.348105032972278,22.883427330708052,0.9028197068304169,49.1230306961316,17.564823264206016,63.78340906718922,43.86322236142671,23.158128700579933,1.9823478972041542,0.0,0.0,0.0,0.0,0.0,0.0,0.0,0.0,0.0,0.0,0.0,0.0,0.0,0.0,18.87985566992021,44.02033226770431,58.4844035779529,24.787059630697456,44.07912799950146,43.96153653590717,35.914874771648165,31.185191887573232,16.367703610237996,1.2954338284484843,0.0,0.0,0.0,0.0,0.0,0.0,0.0,0.0,0.0,0.0,0.0,0.0,0.0,0.0,28.731835559688157,65.82455269619052,93.45726148823921,110.70818622804191,117.28270568030912,114.18163243819981,100.4439936393902,76.99124370352077,41.9595900614373,8.242647536916138,0.0,0.0,0.0,0.0,0.0,0.0,0.0,0.0,0.0,0.0,0.0,0.0,0.0,0.0,31.24398761937037,69.71021160523217,98.08895148598559,115.28108049399117,121.56097871096884,117.26310710304341,102.54393300018863,78.16876478022307,42.352204183055356,8.046661764259003,0.0,0.0,0.0,0.0,0.0,0.0,0.0,0.0,0.0,0.0,0.0,0.0,0.0,0.0,24.689066744368887,58.46480500068718,91.65162207457836,82.13313928647948,92.84874172854641,95.77310648711241,96.14612203146477,72.9484748882015,39.4866351562865,7.379346272769045,0.0,0.0,0.0,0.0,0.0,0.0,0.0,0.0,0.0,0.0,0.0,0.0,0.0,0.0,25.062082288721236,24.885373805177924,88.92356437682142,101.99420897229295,91.33772355017506,87.45174335298151,73.71378326601999,37.68131703077757,19.900266840344912,2.1195379380641497,0.0,0.0,0.0,0.0,0.0,0.0,0.0,0.0,0.0,0.0,0.0,0.0,0.0,0.0,25.51317085398455,59.48553745926378,15.700388118748036,20.685495083581046,46.29698011204606,53.63680794213179,43.94161667048955,28.476732767081977,15.111788224472836,1.7465223937117957,0.0,0.0,0.0,0.0,0.0,0.0,0.0,0.0,0.0,0.0,0.0,0.0,0.0,0.0,26.21968350000593,60.19172881713328,32.26439878979507,68.63068341485844,53.754720693877964,25.101279443252665,32.186004480732215,26.926196146027323,13.953865725036245,6.59411802953291,0.0,0.0,0.0,0.0,0.0,0.0,0.0,0.0,0.0,0.0,0.0,0.0,0.0,0.0,12.148226311375408,30.027269388136638,48.377320895578784,82.91836752971561,48.121896814820715,62.84139220582738,63.82260622172065,51.49767142680192,28.731835559688157,5.043902696630148,0.0,0.0,0.0,0.0,0.0,0.0,0.0,0.0,0.0,0.0,0.0,0.0,0.0,0.0,31.63660174098844,70.0241101296355,98.01023588877081,114.86886779510736,121.07037170302219,117.28270568030912,103.58394274787905,80.64171968537386,47.866794022214535,11.795130632440667,0.0,0.0,0.0,0.0,0.0,0.0,0.0,0.0,0.0,0.0,0.0,0.0,0.0,0.0,29.222442567634783,66.37395543593429,93.14336296383591,112.94563691785227,119.85365347178848,117.18471279398057,103.83904554048523,78.62017463363827,46.74838996546126,11.618422148897345,0.0,0.0,0.0,0.0,0.0,0.0,0.0,0.0,0.0,0.0,0.0,0.0,0.0,0.0,28.59464551882816,65.62824563538149,92.41693045239691,85.25381110585451,94.63478256494152,86.05831663820446,77.65855919501072,61.95817107626267,36.75889874668145,8.890364451140382,0.0,0.0,0.0,0.0,0.0,0.0,0.0,0.0,0.0,0.0,0.0,0.0,0.0,0.0,11.91272209603495,28.221629974475803,51.14425445971529,65.196434359232,74.6949972819133,68.55228910579558,40.54656476939453,33.01042987849978,18.624752877314037,3.0419562221602807,0.0,0.0,0.0,0.0,0.0,0.0,0.0,0.0,0.0,0.0,0.0,0.0,0.0,0.0,6.280219505129595,16.858310618184632,78.30627610923496,97.61794305530468,112.74932985704321,111.84651015021281,99.91418947691214,78.01197616209734,45.472554714278495,11.500509397151168,0.0,0.0,0.0,0.0,0.0,0.0,0.0,0.0,0.0,0.0,0.0,0.0,0.0,0.0,26.00409915008309,60.42723303247373,85.2342125285888,72.0851736240544,84.72368565522454,110.31557210642383,66.6682553830719,30.459080664286127,17.054617678993665,3.081153376691708,0.0,0.0,0.0,0.0,0.0,0.0,0.0,0.0,0.0,0.0,0.0,0.0,0.0,0.0,26.88699899149589,64.66630890860203,94.39927834960106,115.0455762786507,119.42184219563896,116.36028739621298,103.32883995527288,81.30903517686382,47.61169122960836,12.403329103981585,0.0,0.0,0.0,0.0,0.0,0.0,0.0,0.0,0.0,0.0,0.0,0.0,0.0,0.0,29.359953896646687,66.13845122059384,95.69439088989763,113.3379297513184,120.40337749968417,117.3810198547896,105.35038500700844,82.48655625356612,48.455715204641635,12.795943225599652,0.0,0.0,0.0,0.0,0.0,0.0,0.0,0.0,0.0,0.0,0.0,0.0,0.0,0.0,30.969286249498488,69.4355102353603,97.3824388399642,114.02484382007408,124.91715474568431,121.71808861724644,108.17643559109399,82.74165904617229,50.90875024437482,13.953865725036245,0.0,0.0,0.0,0.0,0.0,0.0,0.0,0.0,0.0,0.0,0.0,0.0,0.0,0.0,30.39996364433709,67.80657930524278,94.81149104848484,111.02208475244522,117.08639861950009,113.57343396665888,101.24849917174014,79.836892864872,48.377320895578784,13.011848863674398,0.0,0.0,0.0,0.0,0.0,0.0,0.0,0.0,0.0,0.0,0.0,0.0,0.0,0.0,7.830756126184255,19.605966893207317,29.69345099831571,16.956624792665096,49.16222785066302,13.109841750002966,13.679164355164351,0.19630706080903373,0.0,0.0,0.0,0.0,0.0,0.0,0.0,0.0,0.0,0.0,0.0,0.0,0.0,0.0,0.0,0.0,7.222236366491438,21.21529924605911,59.956545889944714,64.03851185979539,120.8939845076308,118.28351827346809,55.89385720920783,48.49491235917306,28.20203139721009,6.260620927863883,0.0,0.0,0.0,0.0,0.0,0.0,0.0,0.0,0.0,0.0,0.0,0.0,0.0,0.0,8.164253227853285,21.176102091527678,24.61067243530603,61.2516584302413,129.2346249308755,127.0562912610142,113.39672548311556,89.51248555924852,54.00982348648414,15.308095285281867,0.0,0.0,0.0,0.0,0.0,0.0,0.0,0.0,0.0,0.0,0.0,0.0,0.0,0.0,32.38231154154125,71.29994538081826,99.36446544901645,116.18357891266966,123.18990964108637,120.20707043887514,107.66623000588163,85.35180399218308,53.460099458588466,15.661190964216614,0.0,0.0,0.0,0.0,0.0,0.0,0.0,0.0,0.0,0.0,0.0,0.0,0.0,0.0,30.851373497752306,68.14007640691182,94.79157118306722,111.10080034965999,117.79291126552148,114.57424655981787,102.87743010185766,82.09394213194805,51.32096294325861,15.131386801738547,0.0,0.0,0.0,0.0,0.0,0.0,0.0,0.0,0.0,0.0,0.0,0.0,0.0,0.0,20.469589445506298,46.92477716085269,54.088217795546996,80.28830271828724,89.88550110360089,86.1370322354192,78.42386757282925,57.679576757451066,35.32627487737296,10.087484105108398,0.0,0.0,0.0,0.0,0.0,0.0,0.0,0.0,0.0,0.0,0.0,0.0,0.0,0.0,24.335649777282253,56.85547264783539,55.08903038870598,102.32802736211387,107.96052995301923,78.32587468650067,10.872712348344539,76.14754101663938,44.981947706331866,12.65843189658776,0.0,0.0,0.0,0.0,0.0,0.0,0.0,0.0,0.0,0.0,0.0,0.0,0.0,0.0,6.8887392648224095,11.088617986419285,16.721120577324633,25.846989243805474,20.41079371370916,14.169771363110993,14.366078423920026,5.573706859108212,2.86524773861696,0.05879573179714104,0.0,0.0,0.0,0.0,0.0,0.0,0.0,0.0,0.0,0.0,0.0,0.0,0.0,0.0,32.42150869607268,70.65222846659402,98.36365285585748,115.49666484391399,122.48339699506495,119.7556605854599,108.3531440746373,87.07904909678105,53.59761078760035,16.97622336993081,0.0,0.0,0.0,0.0,0.0,0.0,0.0,0.0,0.0,0.0,0.0,0.0,0.0,0.0,30.79257776595516,68.08128067511467,95.26290090190004,111.5914073576066,118.42102960247999,115.98727185186064,104.44756530017806,67.04127092742424,44.6089321619795,16.858310618184632,0.0,0.0,0.0,0.0,0.0,0.0,0.0,0.0,0.0,0.0,0.0,0.0,0.0,0.0,9.61647567442748,29.49746522565857,50.221836175619146,50.830355935311964,65.39242013188911,61.76186401545365,55.756345880195944,40.11475349324503,24.61067243530603,7.065126460213832,0.0,0.0,0.0,0.0,0.0,0.0,0.0,0.0,0.0,0.0,0.0,0.0,0.0,0.0,32.40191011880696,71.22122978360349,100.93460064733685,118.2443211189367,125.54527308264284,123.36661812462968,110.80617911437048,89.3161784984395,55.61915583933594,18.565957145516894,0.0,0.0,0.0,0.0,0.0,0.0,0.0,0.0,0.0,0.0,0.0,0.0,0.0,0.0,32.51950158240124,69.33719606087983,96.1853191859962,112.71013270251179,119.44144077290468,117.59660420471243,106.48870892917931,86.19582796721635,55.599235973918326,18.91905282445164,0.0,0.0,0.0,0.0,0.0,0.0,0.0,0.0,0.0,0.0,0.0,0.0,0.0,0.0,32.28399736706078,28.00572433640105,65.68704136717862,81.62293370126713,93.14336296383591,91.23940937569462,78.60057605637255,22.510733074507595,16.269710723909427,10.735201019332642,0.0,0.0,0.0,0.0,0.0,0.0,0.0,0.0,0.0,0.0,0.0,0.0,0.0,0.0,0.0,24.944169536975064,67.2568552773471,94.32088404053822,122.89560969394877,122.7976168076202,112.51382564170277,91.49451216830076,57.738693777400094,20.312479539228693,0.0,0.0,0.0,0.0,0.0,0.0,0.0,0.0,0.0,0.0,0.0,0.0,0.0,0.0,23.315238606857548,62.17375542618552,93.00585163482401,124.23024067692869,104.97736946265609,118.00881690359621,115.85008181100063,89.98349398992944,34.77655084947728,16.91742763813367,0.0,0.0,0.0,0.0,0.0,0.0,0.0,0.0,0.0,0.0,0.0,0.0,0.0,0.0,17.15293185347413,22.765835867113772,17.15293185347413,25.846989243805474,17.113413410790805,71.45705528709587,65.07852160748581,47.23899697340791,16.406900764769425,2.257049267076043,0.0,0.0,0.0,0.0,0.0,0.0,0.0,0.0,0.0,0.0,0.0,0.0,0.0,0.0,1.275513963030874,8.242647536916138,12.89393611192822,46.13987020576846,55.54044024212119,25.866587821071192,37.46541139270282,16.32850645570657,9.911096909716976,18.66395003184547,0.0,0.0,0.0,0.0,0.0,0.0,0.0,0.0,0.0,0.0,0.0,0.0,0.0,0.0,8.125056073321856,7.732441951703789,29.988072233605212,58.73950637055907,53.87231215747224,67.394366606359,73.65466624607096,88.82557149049283,57.424473964844864,20.606779486366296,0.0,0.0,0.0,0.0,0.0,0.0,0.0,0.0,0.0,0.0,0.0,0.0,0.0,0.0,6.515723720470057,16.544412093781315,30.94968767223277,115.26116062857356,43.25502388988578,43.019519674545315,48.8284094608421,36.73930016941573,0.9028197068304169,19.154557039792106,0.0,0.0,0.0,0.0,0.0,0.0,0.0,0.0,0.0,0.0,0.0,0.0,0.0,0.0,10.421302494929328,46.31657868931177,100.11017524956922,119.50055779285374,126.15347155418378,125.54527308264284,114.08363955187123,92.86834030581213,60.11333450807042,22.667521692633308,0.0,0.0,0.0,0.0,0.0,0.0,0.0,0.0,0.0,0.0,0.0,0.0,0.0,3.3166575920321697,38.211121193255636,76.26513248023366,104.48676245470945,121.03117454849077,127.95911096784462,125.2898490018848,113.9072523564798,93.10384452115257,62.174076714337424,23.8254441920699,0.0,0.0,0.0,0.0,0.0,0.0,0.0,0.0,0.0,0.0,0.0,0.0,0.0,3.37545332382931,36.83729305574429,73.49787762794526,100.01218236324073,116.18357891266966,123.11151533202349,121.24708018656551,114.02484382007408,90.35650953428178,59.99542175632424,23.0993329687828,0.0,0.0,0.0,0.0,0.0,0.0,0.0,0.0,0.0,0.0,0.0,0.0,0.0,4.258674453394014,38.721326778467976,76.28473105749937,106.19440898204172,119.04914793943851,125.5648716599086,105.48757504786846,100.0317809405064,76.67734517911744,60.545145784219905,13.070644595471537,0.0,0.0,0.0,0.0,0.0,0.0,0.0,0.0,0.0,0.0,0.0,0.0,0.0,0.07839430906285473,21.50959919319671,49.240622159725866,69.5926201416379,79.22869439333108,93.51605722003633,98.97217261555029,65.82423140803861,57.8954823955258,41.03717177734117,13.914668570504816,0.0,0.0,0.0,0.0,0.0,0.0,0.0,0.0,0.0,0.0,0.0,0.0,0.0,0.9420168613618444,34.658959385883,69.49430596715743,97.3824388399642,114.37826078716074,121.44338724737456,119.57895210191658,109.04005814339298,88.1386574217372,56.40406279442018,21.804220428486207,0.0,0.0,0.0,0.0,0.0,0.0,0.0,0.0,0.0,0.0,0.0,0.0,0.0,0.0,5.161494160224432,7.320229252820008,23.21724572052898,32.480304427869804,34.63936080861728,41.93999148417159,26.71061179610447,23.17772727784565,24.669468167103172,9.165065821012268,0.0,0.0,0.0,0.0,0.0,0.0,0.0,0.0,0.0,0.0,0.0,0.0,0.0,0.0,0.5690013170094905,25.317185081327416,45.040743438129006,58.30769509440958,88.17785457626862,100.7578921637935,78.83608027171302,97.5199501689761,36.79809590121287,12.599636164790615,0.0,0.0,0.0,0.0,0.0,0.0,0.0,0.0,0.0,0.0,0.0,0.0,0.0,4.141082989799731,12.854738957396794,27.71142438926345,48.8483293262597,67.61027224443374,130.76556297466442,126.25178572866423,115.02565641323307,94.53678967861296,63.78340906718922,25.729076492059303,0.0,0.0,0.0,0.0,0.0,0.0,0.0,0.0,0.0,0.0,0.0,0.0,0.0,5.299005489236324,39.310247960895076,76.0296282648932,102.3476259393796,118.42102960247999,124.13224779060009,121.67889146271506,111.2771875450514,91.41611785923791,61.76186401545365,25.042162423303623,0.0,0.0,0.0,0.0,0.0,0.0,0.0,0.0,0.0,0.0,0.0,0.0,0.0,4.8279970585554,14.954678318195226,62.566369547803596,75.61741556600941,116.94920857864008,123.09191675475779,120.9135830848965,110.3942877036386,90.611612326888,61.31045416203843,23.80584561480418,0.0,0.0,0.0,0.0,0.0,0.0,0.0,0.0,0.0,0.0,0.0,0.0,0.0,2.139136515329864,7.948347589778536,39.11394090008604,36.79809590121287,50.810757358046246,69.7494087597636,56.8750712251011,72.55586076658342,35.75776486537057,11.147413718216423,0.019598577265713683,0.0,0.0,0.0,0.0,0.0,0.0,0.0,0.0,0.0,0.0,0.0,0.0,0.0,0.0,1.0204111704246992,0.5102055852123496,6.142708176117703,39.840052123373155,27.652628657466305,63.80300764445493,69.21960459728554,45.82597168136515,5.024304119364435,23.55074282219801,0.0,0.0,0.0,0.0,0.0,0.0,0.0,0.0,0.0,0.0,0.0,0.0,0.0,7.084725037479546,44.39302652390477,84.03709287462078,112.57262137349987,130.35335027578066,136.849475418985,129.4309319916845,118.26391969620241,97.3824388399642,66.84496386661522,28.26082712900723,0.0,0.0,0.0,0.0,0.0,0.0,0.0,0.0,0.0,0.0,0.0,0.0,0.0,7.496937736363328,43.52972525975768,80.03319992568103,106.09609480756129,121.91439567805547,128.2338123377165,125.5648716599086,114.55464798255214,94.5955854104101,64.74502450581677,27.26001453584825,0.0,0.0,0.0,0.0,0.0,0.0,0.0,0.0,0.0,0.0,0.0,0.0,0.0,4.984785676681112,39.40824084722365,61.82065974725079,85.3910011467145,103.58426403603094,103.64305976782808,103.68225692235953,62.154478137071706,43.549323837023394,59.70112180918663,26.16088776820879,0.0,0.0,0.0,0.0,0.0,0.0,0.0,0.0,0.0,0.0,0.0,0.0,0.0,2.845649161351247,24.23765689095368,54.46123333989934,65.01972587568866,79.22869439333108,77.32506209334167,95.41968952002577,70.92692983646592,35.8168818853196,11.206209450013564,11.108216563684994,0.0,0.0,0.0,0.0,0.0,0.0,0.0,0.0,0.0,0.0,0.0,0.0,0.0,6.083912444320562,29.8309623273276,40.19314780230789,66.58986107400904,92.47604747234597,91.20053350931506,83.9191801228746,72.65417494106389,70.25961434497596,40.78206898473499,9.45968705630177,0.0,0.0,0.0,0.0,0.0,0.0,0.0,0.0,0.0,0.0,0.0,0.0,0.0,3.2382632829693145,17.957437385824086,47.336989859736484,48.8483293262597,61.13374567849511,74.40069733477569,86.39181373987348,76.26513248023366,67.5514765126366,48.985519367119714,15.209781110801403,0.0,0.0,0.0,0.0,0.0,0.0,0.0,0.0,0.0,0.0,0.0,0.0,0.0,8.753174410280385,44.23623790577905,79.32668727965965,104.44756530017806,118.617336663289,128.3909222439941,124.62285479854674,112.12121152008469,90.41530526607895,59.15171906944286,25.689879337527877,0.0,0.0,0.0,0.0,0.0,0.0,0.0,0.0,0.0,0.0,0.0,0.0,0.0,9.577278519896053,47.39578559153361,85.48931532119498,112.98483407238365,129.80394753603687,136.2804741019755,133.6112121360157,109.56986230587104,100.6011035456678,63.86180337625207,30.65506643694327,0.0,0.0,0.0,0.0,0.0,0.0,0.0,0.0,0.0,0.0,0.0,0.0,0.0,9.322175727289878,43.33341819894864,73.94928748136046,113.18114113319271,128.2338123377165,133.68960644507854,129.86274326783402,115.83048323373491,90.10108545352374,59.99542175632424,25.788193512008338,0.0,0.0,0.0,0.0,0.0,0.0,0.0,0.0,0.0,0.0,0.0,0.0,0.0,9.911096909716976,4.435382936937334,86.64691653247965,37.95601840064946,46.4733673074375,64.09730759159254,137.10457821159116,122.34620695420496,100.93460064733685,67.78698072797707,30.537474973348985,0.0,0.0,0.0,0.0,0.0,0.0,0.0,0.0,0.0,0.0,0.0,0.0,0.0,10.970705234673105,48.808810883576385,84.82199982970498,109.98207500475479,125.2898490018848,131.33456429167393,129.19542777634408,117.43981558658672,97.87304584791084,67.96368921152039,30.65506643694327,0.0,0.0,0.0,0.0,0.0,0.0,0.0,0.0,0.0,0.0,0.0,0.0,0.0,11.638020726163061,51.59566431313049,89.19826574669331,116.6941057860339,133.14020370533476,139.4596203649958,136.26055423655788,124.28903640872579,99.77667814790026,69.84772293424408,31.98969741992317,1.6289309301175143,0.0,0.0,0.0,0.0,0.0,0.0,0.0,0.0,0.0,0.0,0.0,0.0,11.775532055174954,50.33974892736534,87.47134193024723,113.16122126777509,127.93951239057891,128.74401792292886,126.09467582238665,114.55464798255214,93.77116001264255,65.45153715183817,29.47754536024097,1.1187253449051644,0.0,0.0,0.0,0.0,0.0,0.0,0.0,0.0,0.0,0.0,0.0,0.0,11.57922499436592,45.25664907620376,85.70522095926971,111.88570730474424,126.70319558207945,131.727178413292,129.9607361541626,112.61181852803129,92.69195311042068,64.15610332338967,28.771032714219583,1.0008125931589855,0.0,0.0,0.0,0.0,0.0,0.0,0.0,0.0,0.0,0.0,0.0,0.0,12.148226311375408,49.7116305904068,85.25381110585451,111.33630456500043,126.56568425306757,133.27771503434664,131.0010671900049,119.57895210191658,99.52157535529406,67.23725670008139,30.65506643694327,1.7664422591294069,0.0,0.0,0.0,0.0,0.0,0.0,0.0,0.0,0.0,0.0,0.0,0.0,11.049099543735961,42.72489843925582,85.2342125285888,99.16815838820743,125.19185611555622,129.9806560195802,126.87958277747087,115.33987622578829,94.37967977233535,48.33780245289546,29.49746522565857,1.4914196011056216,0.0,0.0,0.0,0.0,0.0,0.0,0.0,0.0,0.0,0.0,0.0,0.0,12.364131949450154,48.35740103016117,65.53025274905292,75.85291978134988,80.58292395357671,118.06761263539335,127.60569400075796,78.73808738538446,93.14336296383591,63.19448788476213,29.16364683583765,1.3346309829799121,0.0,0.0,0.0,0.0,0.0,0.0,0.0,0.0,0.0,0.0,0.0,0.0,10.538893958523607,37.81850707163757,72.92887631093578,108.47073553823161,124.36775200594057,99.14855981094169,108.41193980643445,93.6927657035797,85.15549693137403,61.82065974725079,29.57585953472143,1.6681280846489417,0.0,0.0,0.0,0.0,0.0,0.0,0.0,0.0,0.0,0.0,0.0,0.0,9.224182840961307,32.93171428128502,33.030028455765496,18.781862783591645,50.57525314270579,68.59148626032703,127.54689826896085,116.10518460360682,96.44010069045044,67.29637372003043,30.262773603477093,2.178333669861291,0.0,0.0,0.0,0.0,0.0,0.0,0.0,0.0,0.0,0.0,0.0,0.0,14.267764249439562,51.79197137393953,86.45093075982254,83.82118723654605,126.17307013144949,130.80476012919587,128.82273352014357,117.93042259453337,98.20654294957987,68.92530465014794,31.499090411976546,2.5709477914793584,0.0,0.0,0.0,0.0,0.0,0.0,0.0,0.0,0.0,0.0,0.0,0.0,14.895882586398086,51.67437991034525,84.72400694337645,107.98012853028494,125.25065184735337,131.1186586535992,127.62529257802368,101.34681334622059,96.97022614108042,66.0992540660624,31.42069610291369,2.5513492142136447,0.0,0.0,0.0,0.0,0.0,0.0,0.0,0.0,0.0,0.0,0.0,0.0,14.699575525589054,50.71276447171769,74.14559454216952,80.30790129555292,102.97574427633812,114.7901521978926,102.62264859740341,99.79627672516595,85.15549693137403,41.84167730969112,20.05737674662252,1.0008125931589855,0.0,0.0,0.0,0.0,0.0,0.0,0.0,0.0,0.0,0.0,0.0,0.0,2.041143629001295,8.517670194939923,13.463258717089607,25.375980813124556,13.600448757949605,9.027875780152275,30.969286249498488,42.90160692279915,3.2578618602350287,24.276854045485106,11.52010797441688,0.019598577265713683,0.0,0.0,0.0,0.0,0.0,0.0,0.0,0.0,0.0,0.0,0.0,0.0,8.125056073321856,25.27766663864409,40.448571883065966,37.89722266885232,56.71796131882349,46.13987020576846,43.392213930745775,47.376187014267906,45.64926319782182,14.09105576589624,6.515723720470057,0.0,0.0,0.0,0.0,0.0,0.0,0.0,0.0,0.0,0.0,0.0,0.0,0.0,2.413837885201752,10.224995434120293,38.171924038724214,55.28533744951501,93.31975015922731,128.07670243143892,103.4271541297533,100.52238794845306,94.006664227983,41.03717177734117,19.704281067687774,1.1775210767023054,0.0,0.0,0.0,0.0,0.0,0.0,0.0,0.0,0.0,0.0,0.0,0.0,17.447231800611736,18.93865140171735,58.1705050535496,92.27974041153692,131.1186586535992,136.49637974005026,135.06343458258988,124.70124910760958,104.27085681663472,38.26991692505277,19.311666946069707,1.5897337755860868,0.0,0.0,0.0,0.0,0.0,0.0,0.0,0.0,0.0,0.0,0.0,0.0,20.80308654717533,62.97858224668738,99.75707957063452,125.95716449337476,140.40163722635762,145.3276271712416,142.835394976977,129.4897277234817,107.35201019332642,75.48022552514942,35.32627487737296,3.846461754510232,0.0,0.0,0.0,0.0,0.0,0.0,0.0,0.0,0.0,0.0,0.0,0.0,20.54798375456916,60.72153297961133,94.85068820301628,118.14632823260808,131.05986292180205,134.65122188370609,133.65040929054712,120.481771808747,99.38406402628219,70.08322714958453,34.05043962619019,3.6700745591188086,0.0,0.0,0.0,0.0,0.0,0.0,0.0,0.0,0.0,0.0,0.0,0.0,20.292880961962982,59.01420774043097,91.8283305581217,119.2059365575642,133.2185980143976,73.63538895695716,136.45686129736694,123.81802797804487,103.44675270701906,71.12323689727495,34.855266446692035,4.3765872051401935,0.0,0.0,0.0,0.0,0.0,0.0,0.0,0.0,0.0,0.0,0.0,0.0,19.998581014825376,57.974197992740564,91.23973066384649,114.81007206331022,61.68346970639079,105.01656661718752,106.94011878259455,80.44541262456481,51.379758675055754,39.97724216423314,19.723879644953488,1.864435145457975,0.0,0.0,0.0,0.0,0.0,0.0,0.0,0.0,0.0,0.0,0.0,0.0,2.217852112544615,4.906391367618256,5.3773997982991775,18.212540178430256,40.48776903759739,55.52084166485547,71.41753684441255,56.345267062623044,55.756345880195944,26.435589138080683,13.266951656280575,0.844023975033276,0.0,0.0,0.0,0.0,0.0,0.0,0.0,0.0,0.0,0.0,0.0,0.0,0.8636225522989897,3.709271713650237,13.8950699932391,21.568716213145752,22.334024590964276,23.864641346601324,16.406900764769425,18.52643870283357,15.955490911354214,8.71365596759706,4.023170238053552,0.0,0.0,0.0,0.0,0.0,0.0,0.0,0.0,0.0,0.0,0.0,0.0,0.0,0.37301554435235373,0.35341696708664017,6.221423773332454,10.480098226726467,18.585234434630717,13.345345965343428,15.935892334088502,9.577278519896053,19.547171161410173,16.190995126694673,7.830756126184255,0.19630706080903373,0.0,0.0,0.0,0.0,0.0,0.0,0.0,0.0,0.0,0.0,0.0,0.0,21.254496400590533,57.99379657000625,89.29657992117376,111.23799039051998,69.84772293424408,60.466430187005145,81.03433380699192,63.66549631544305,100.7578921637935,33.1868170738912,34.246746686999224,4.592492843214941,0.0,0.0,0.0,0.0,0.0,0.0,0.0,0.0,0.0,0.0,0.0,0.0,5.907203960777241,29.006536929560042,58.30769509440958,66.84496386661522,58.346892248941,63.645897738177325,74.81291003365945,64.21489905518682,86.1171123700016,49.29941789152303,25.27766663864409,3.512964652841202,0.0,0.0,0.0,0.0,0.0,0.0,0.0,0.0,0.0,0.0,0.0,0.0,23.55074282219801,61.48716264558176,84.09556731826602,98.57955849393223,115.20236489677642,120.56016611780987,115.75176763652016,105.33078642974273,85.9799223291416,50.63404887450292,25.788193512008338,3.7680674454473784,0.0,0.0,0.0,0.0,0.0,0.0,0.0,0.0,0.0,0.0,0.0,0.0,22.785434444379483,52.812703832516114,66.6878539603376,75.0288156717342,78.69889023085301,87.53013766204437,105.76259770589222,89.84630394906947,51.89028554841999,28.6534412506253,14.228567094908133,1.511018178371335,0.0,0.0,0.0,0.0,0.0,0.0,0.0,0.0,0.0,0.0,0.0,0.0,11.245406604544993,27.358007422176808,43.294221044417206,116.24269593261869,128.46931655305696,134.12141772122806,130.45166445026112,119.7360620081942,99.65876539615408,68.67020185754177,16.42649934203514,4.8279970585554,0.0,0.0,0.0,0.0,0.0,0.0,0.0,0.0,0.0,0.0,0.0,0.0,23.648735708526573,59.053404894962384,54.73593470977122,76.36344665471412,97.99063731150513,128.27300949224792,124.17112365697962,113.22033828772413,94.57598683314438,67.2568552773471,19.586368315941602,2.8064520068198187,0.0,0.0,0.0,0.0,0.0,0.0,0.0,0.0,0.0,0.0,0.0,0.0,4.023170238053552,20.430392290974872,35.6793705563077,38.878436684745594,57.26768534671916,82.62374629442611,90.55249530693891,87.90315320639671,99.65908668430595,46.88558000632128,15.24897826533283,2.001946474469868,0.0,0.0,0.0,0.0,0.0,0.0,0.0,0.0,0.0,0.0,0.0,0.0,26.47510758076401,66.31483841598526,99.89426961149454,123.2490266610354,136.75148253265644,141.971772424678,138.24290213376204,125.95716449337476,105.31118785247705,75.0288156717342,37.34749864095664,5.573706859108212,0.0,0.0,0.0,0.0,0.0,0.0,0.0,0.0,0.0,0.0,0.0,0.2747013698718884,27.044108897773494,64.4899217132106,96.89151054386566,116.28189308715011,129.78434895877115,134.8086530781356,136.1429627729636,119.63774783371376,99.63916681888836,71.04484258821209,36.18957614152005,5.770013919917246,0.0,0.0,0.0,0.0,0.0,0.0,0.0,0.0,0.0,0.0,0.0,1.0008125931589855,28.319622860804373,66.45234974499714,98.2656599695289,120.46217323148129,132.61039954285673,136.31967125650692,133.0618093962719,121.99278998711834,102.66152446378292,73.57659322516001,37.79890849437185,6.142708176117703,0.0,0.0,0.0,0.0,0.0,0.0,0.0,0.0,0.0,0.0,0.0,0.7261112232870971,24.43396395176271,47.160281376193154,71.18203262907207,80.03319992568103,99.5607725098255,85.50891389846069,112.23880298367895,60.91784004042036,63.68509489270875,69.55310169895456,34.08963678072162,5.554108281842497,0.0,0.0,0.0,0.0,0.0,0.0,0.0,0.0,0.0,0.0,0.0,0.0,22.608725960836164,34.89446360122347,32.4607058506041,35.875677617116736,56.97306411142967,74.30270444844709,44.275435060310485,41.5081802080221,42.646504130192966,26.47510758076401,8.02674189884139,3.2774604375007415,0.0,0.0,0.0,0.0,0.0,0.0,0.0,0.0,0.0,0.0,0.0,0.0,9.067072934683699,27.102904629570638,25.689879337527877,122.54251401501402,139.38122605593293,145.48473707751918,138.08579222748443,126.80118846840806,106.312000445636,76.0100296876275,37.583002856297114,6.162306753383414,0.0,0.0,0.0,0.0,0.0,0.0,0.0,0.0,0.0,0.0,0.0,2.217852112544615,31.263586196636087,72.04565518137106,107.72502573767878,131.92348547410106,146.19124972354058,150.64623123774362,145.81823417918824,132.15898968944148,107.21482015246643,56.69836274155778,31.008483404029906,6.633315184064339,0.0,0.0,0.0,0.0,0.0,0.0,0.0,0.0,0.0,0.0,0.0,2.3158449988731835,31.36190037111655,70.80933837287162,104.03535260129426,126.52648709853615,139.73432173486765,143.97371889914783,139.59713169400771,127.13468557007704,105.9981019212327,73.83169601776619,38.348311234115634,6.810023667607659,0.0,0.0,0.0,0.0,0.0,0.0,0.0,0.0,0.0,0.0,0.0,2.7280576977569644,32.244800212529356,71.16243405180637,102.17091745583627,123.3078223928325,135.2205444888675,138.83182331618914,134.47483468831467,122.77801823035446,103.32883995527288,74.24358742849806,38.40742825406467,6.633315184064339,0.0,0.0,0.0,0.0,0.0,0.0,0.0,0.0,0.0,0.0,0.0,2.924364758565998,31.656200318254147,70.10282572685024,101.93541324049582,123.44533372184445,118.79404514683235,141.01015698605045,137.14377536612258,125.54527308264284,105.33078642974273,73.55699464789431,38.152325461458496,6.71203078127909,0.0,0.0,0.0,0.0,0.0,0.0,0.0,0.0,0.0,0.0,0.0,3.1007519539574218,30.65506643694327,67.59067366716802,69.25880175181697,62.154478137071706,69.92611724330693,31.4402946801794,98.08895148598559,122.3854041087364,100.95419922460256,71.6334424824873,35.973670503445305,6.829622244873372,0.0,0.0,0.0,0.0,0.0,0.0,0.0,0.0,0.0,0.0,0.0,3.0027590676288534,29.75256801826475,42.90160692279915,76.65774660185173,118.53894235422615,101.93541324049582,136.33926983377265,132.09987266949244,121.40419009284314,102.46553869112577,74.12599596490381,37.81850707163757,6.927936419353838,0.0,0.0,0.0,0.0,0.0,0.0,0.0,0.0,0.0,0.0,0.0,3.4933660755754894,30.282372180742808,65.13763862743484,77.57984359779596,94.36008119506964,41.42978589895924,89.17898845757948,112.80812558884035,94.49727123592965,54.991037502377395,35.6793705563077,16.681923422793208,6.378212391458164,0.0,0.0,0.0,0.0,0.0,0.0,0.0,0.0,0.0,0.0,0.0,2.924364758565998,5.141895582958717,20.665896506315327,26.88699899149589,33.24593409384023,63.25328361655928,93.7515614353768,55.63875441660166,52.36129397910091,31.61700316372272,26.435589138080683,15.935892334088502,6.927936419353838,0.0,0.0,0.0,0.0,0.0,0.0,0.0,0.0,0.0,0.0,0.0,1.8840337227236892,10.813595328395495,69.4355102353603,73.85129459503192,87.88355462913101,93.26095442743019,87.96194893819386,98.99144990466412,88.41335879160906,82.761257623438,57.3068825012506,36.93528594207286,7.51653631362904,0.0,0.0,0.0,0.0,0.0,0.0,0.0,0.0,0.0,0.0,0.0,0.19630706080903373,1.8252379909265481,7.418543427300474,11.441713665354026,11.853926364237807,18.91905282445164,23.35443576138897,54.46123333989934,47.98470677396072,36.366284625063365,23.53114424493229,6.7316293585448035,0.0,0.0,0.0,0.0,0.0,0.0,0.0,0.0,0.0,0.0,0.0,0.0,4.749281461340648,34.71775511768015,72.63457636379817,101.16978357452541,121.1098901457055,133.0226122417405,136.77075982177024,132.8067066036657,122.16949847066168,102.58313015472004,74.57740581831902,39.52615359896985,7.654047642640934,0.0,0.0,0.0,0.0,0.0,0.0,0.0,0.0,0.0,0.0,0.0,5.161494160224432,34.73735369494586,70.43632282851928,99.1093626564103,119.10794367123569,108.54945113544636,135.73075007407985,130.5692559138554,119.79485773999131,100.11017524956922,22.490813209089985,38.937232416542734,7.967946167044251,0.0,0.0,0.0,0.0,0.0,0.0,0.0,0.0,0.0,0.0,0.0,5.299005489236324,35.895276194382454,74.85242847634278,106.64549754730506,128.6460250366003,141.34365408771947,144.95493291504113,124.17144494513155,98.3048571240603,108.45113696096588,77.58016488594788,33.579431195509265,7.9875447443099645,0.0,0.0,0.0,0.0,0.0,0.0,0.0,0.0,0.0,0.0,0.0,5.573706859108212,36.18957614152005,74.75411430186233,106.27280329110461,128.19461518318508,141.10814987237904,144.896137183244,141.14734702691044,128.92072640647214,108.09804128203116,78.10996904842592,24.885373805177924,8.14465465058757,0.0,0.0,0.0,0.0,0.0,0.0,0.0,0.0,0.0,0.0,0.0,5.8092110744486725,36.327087470531936,72.12404949043395,104.32997383658376,125.76085743256573,138.1449092474335,141.7166696320718,137.7522951258154,125.36856459909954,70.84853552740306,74.04760165584095,39.15313805461748,8.71365596759706,0.0,0.0,0.0,0.0,0.0,0.0,0.0,0.0,0.0,0.0,0.0,6.123109598851988,36.562591685872405,72.3595537057744,101.15050628541158,120.93318166216221,132.1981868439729,135.3776543951451,117.98921832633049,121.30587591836266,101.54312040702965,74.2831058711814,40.40905344038264,8.909963028406095,0.0,0.0,0.0,0.0,0.0,0.0,0.0,0.0,0.0,0.0,0.0,6.260620927863883,37.36709721822236,73.16438052627623,104.42796672291232,125.09386322922764,136.73188395539074,140.87264565703856,137.08497963432544,95.57679942630337,106.0177004984984,76.69694375638315,40.35025770858549,8.733254544862774,0.0,0.0,0.0,0.0,0.0,0.0,0.0,0.0,0.0,0.0,0.0,3.297059014766456,13.796755818758635,44.55013643018237,76.1867381711708,95.9102965279724,102.36722451664532,107.72502573767878,128.48891513032268,117.00800431043724,98.02983446603656,71.22122978360349,38.05401128697802,8.517670194939923,0.0,0.0,0.0,0.0,0.0,0.0,0.0,0.0,0.0,0.0,0.0,6.378212391458164,24.80665820796317,53.77431927114368,73.53707478247671,69.76900733702932,120.7368746013532,61.8402583245165,117.12559577403152,75.69613116322417,69.55310169895456,40.605360501191676,21.156503514261967,6.810023667607659,0.0,0.0,0.0,0.0,0.0,0.0,0.0,0.0,0.0,0.0,0.0,1.9036322999894024,12.246540485855872,58.346892248941,43.13711113813961,84.0762900291522,97.75513309616467,99.67868526157169,47.925911042163584,47.023091335333156,47.10148564439602,34.03084104892448,19.370462677866847,5.770013919917246,0.0,0.0,0.0,0.0,0.0,0.0,0.0,0.0,0.0,0.0,0.0,6.7904250903419445,17.937838808558368,51.7527742194081,71.82974954329633,47.55289549781122,108.2156327456254,114.69215931156404,88.72725731601238,77.93326056488259,51.163853036981,35.836480462585314,18.369650084707864,6.083912444320562,0.0,0.0,0.0,0.0,0.0,0.0,0.0,0.0,0.0,0.0,0.0,0.19630706080903373,18.2713359102274,4.337390050608765,6.672833626747662,25.63108360573073,51.73317564214239,66.74664969213475,52.77318538983279,47.47450118874837,54.00982348648414,43.80442662962957,24.846176650646488,7.143842057428584,0.0,0.0,0.0,0.0,0.0,0.0,0.0,0.0,0.0,0.0,0.0,0.0,21.961009046611924,23.21724572052898,22.255308993749523,87.53013766204437,73.85129459503192,43.35301677621435,55.265738872249315,36.091583255191495,31.5774847210394,29.556260957455713,7.51653631362904,4.121484412534018,0.0,0.0,0.0,0.0,0.0,0.0,0.0,0.0,0.0,0.0,0.0,1.9428294545208302,5.966320980726278,14.758371257386196,55.48164451032405,125.62366739170572,136.0054514439517,139.89143164114526,120.14795341892606,125.89836876157759,106.312000445636,75.75492689502131,41.41018732169353,9.40057003635273,0.0,0.0,0.0,0.0,0.0,0.0,0.0,0.0,0.0,0.0,0.0,7.614850488109507,39.6241464852984,74.85210718819091,102.03372741497627,120.93318166216221,131.66838268149488,134.43563753378322,130.0002545968459,118.83324230136377,99.95338663144356,73.24277483533909,39.95764358696743,8.909963028406095,0.0,0.0,0.0,0.0,0.0,0.0,0.0,0.0,0.0,0.0,0.0,7.575332045426182,39.172736631883204,73.83169601776619,100.32640217579589,118.22472254167096,128.48891513032268,131.25616998261108,127.802001061567,117.59660420471243,99.5803710870912,73.41948331888241,40.42865201764835,9.224182840961307,0.0,0.0,0.0,0.0,0.0,0.0,0.0,0.0,0.0,0.0,0.0,8.105457496056143,39.52615359896985,74.57708453016711,101.71950760242107,120.54056754054413,131.05986292180205,133.86631492862185,135.6719543422827,119.40224361837326,101.48400338708059,75.0288156717342,41.35107030174449,9.577278519896053,0.0,0.0,0.0,0.0,0.0,0.0,0.0,0.0,0.0,0.0,0.0,8.262246114181853,39.310247960895076,73.59619180242574,99.95338663144356,118.81364372409806,128.95992356100362,131.6095869496977,118.95083376495806,117.1451943512972,98.9522527501327,72.45786788025484,40.0559577614479,9.793184157970801,0.0,0.0,0.0,0.0,0.0,0.0,0.0,0.0,0.0,0.0,0.0,8.340961711396604,39.094342322820346,71.00564543368066,102.4848159802396,121.42378867010885,117.8716268627362,136.20207979291266,131.76637556782342,120.28546474793798,101.87661750869869,72.73256925012673,40.252264822256926,9.85197988976794,0.0,0.0,0.0,0.0,0.0,0.0,0.0,0.0,0.0,0.0,0.0,7.614850488109507,32.97091143581645,62.213273868868846,88.9042870877076,63.86180337625207,68.61108483759273,118.14632823260808,116.36060868436488,106.78300887631693,78.85567884897874,71.67263963701873,35.24755928015821,10.067885527842686,0.0,0.0,0.0,0.0,0.0,0.0,0.0,0.0,0.0,0.0,0.0,9.24378141822702,34.972857910286315,57.81708808646295,79.18949723879966,81.62293370126713,99.128961233676,110.53147774449863,104.89897515359324,83.64447875300272,48.475313781907346,35.12996781656393,25.160075175049812,7.261433521022866,0.0,0.0,0.0,0.0,0.0,0.0,0.0,0.0,0.0,0.0,0.0,2.178333669861291,25.160075175049812,46.650075790980814,62.48797523874074,88.78605304780953,93.92826991892014,105.25207083252798,124.34783214052295,112.5922199507656,95.02739668655958,69.47470738989172,38.073609864243736,10.519295381257894,0.0,0.0,0.0,0.0,0.0,0.0,0.0,0.0,0.0,0.0,0.0,6.986732151150979,21.961009046611924,45.64926319782182,65.54953003816674,60.83944573135753,63.017779401218796,94.143854268843,89.9047783927147,101.7394274678387,82.09394213194805,70.49511856031641,39.21193378641463,10.892310925610248,0.0,0.0,0.0,0.0,0.0,0.0,0.0,0.0,0.0,0.0,0.0,9.45968705630177,39.05514516828891,73.12486208359292,100.56158510298448,93.86947418712299,126.23218715139856,128.68522219113171,124.603256221281,113.67174814113936,49.88833907395013,71.43713542167826,39.44743800175508,10.77439817386407,0.0,0.0,0.0,0.0,0.0,0.0,0.0,0.0,0.0,0.0,0.0,9.184664398277985,38.701728201202265,72.10445091316822,59.269310533037135,101.36641192348631,130.03945175137733,133.25811645708094,124.52454062406626,97.3432416854328,76.50063669557412,57.65997818018535,31.224389042104654,8.183851805118998,0.0,0.0,0.0,0.0,0.0,0.0,0.0,0.0,0.0,0.0,0.0,5.632502590905353,1.4914196011056216,21.077787917047214,41.5081802080221,93.86947418712299,63.940197685314935,55.6975501483988,85.86200957739544,86.8631434587063,45.23705049893804,30.635467859677558,21.84341758301764,11.382917933556886,0.0,0.0,0.0,0.0,0.0,0.0,0.0,0.0,0.0,0.0,0.0,10.224995434120293,43.76522947509813,81.25023944506667,109.90368069569195,129.5096475888993,140.49995140083806,142.85499355424272,137.5951852195378,125.7807772979833,106.1548905393584,78.5417803245754,42.960402654596294,11.52010797441688,0.0,0.0,0.0,0.0,0.0,0.0,0.0,0.0,0.0,0.0,0.0,10.244594011386006,42.097101390449204,75.65693400869273,102.22971318763342,120.08915768712893,130.09824748317448,132.74791087186858,129.56844332069642,118.02841548086194,100.48319079392162,74.2635072939157,41.998787215968726,11.480910819885453,0.0,0.0,0.0,0.0,0.0,0.0,0.0,0.0,0.0,0.0,0.0,5.8092110744486725,41.449384476224935,74.75411430186233,101.15050628541158,119.65734641097946,129.90194042236544,132.55128252290768,93.3001515819616,118.83324230136377,99.992583785975,73.94928748136046,41.56697593981923,11.324122201759744,0.0,0.0,0.0,0.0,0.0,0.0,0.0,0.0,0.0,0.0,0.0,10.224995434120293,40.11475349324503,72.45786788025484,98.03015575418844,115.77168750193779,125.64326596897145,128.29260806951365,110.9828875979138,115.81088465646923,23.84504276933561,37.524207124499966,41.2334788381502,12.10902915684398,0.0,0.0,0.0,0.0,0.0,0.0,0.0,0.0,0.0,0.0,0.0,10.696003864801213,32.794524240425034,71.65304105975302,96.91110912113136,114.24074945814884,124.1319265024482,110.04087073655195,83.78166879386269,32.42150869607268,87.29463344670391,56.63956700976064,40.66415623298881,12.344533372184443,0.0,0.0,0.0,0.0,0.0,0.0,0.0,0.0,0.0,0.0,0.0,10.59768969032075,39.40824084722365,71.41753684441255,96.89183183201756,114.69215931156404,124.77964341667244,69.55310169895456,126.01628151332379,113.82853675926506,96.53841486493091,71.43713542167826,34.77655084947728,12.050233425046839,0.0,0.0,0.0,0.0,0.0,0.0,0.0,0.0,0.0,0.0,0.0,10.460499649460754,40.19314780230789,74.06720023310666,100.77781202921112,119.24545500024756,129.80394753603687,132.7475895837167,129.4897277234817,118.5977380860233,100.18889084678402,72.0848523359025,41.41018732169353,12.148226311375408,0.0,0.0,0.0,0.0,0.0,0.0,0.0,0.0,0.0,0.0,0.0,10.578091113055038,39.74173794889268,71.47665386436158,99.75707957063452,119.06874651670424,129.5096475888993,132.33569817298482,128.5477108621198,117.57700562744672,96.28331207232478,71.16243405180637,41.03717177734117,12.246540485855872,0.0,0.0,0.0,0.0,0.0,0.0,0.0,0.0,0.0,0.0,0.0,6.59411802953291,38.42702683133038,65.13731733928294,87.35375046665294,113.84813533653076,114.77087490877881,105.03648648260513,115.86968038826636,98.16734579504845,87.62845183652483,63.70469346997447,40.38945486311693,12.403329103981585,0.0,0.0,0.0,0.0,0.0,0.0,0.0,0.0,0.0,0.0,0.0,10.833193905661213,33.599029772774976,70.33832994219071,94.8898853575477,111.8269115729471,121.22748160929982,124.48534346953484,121.26667876383124,66.92335817567808,77.9335818530345,69.57270027622029,33.79533683358401,12.933133266459643,0.0,0.0,0.0,0.0,0.0,0.0,0.0,0.0,0.0,0.0,0.0,11.127815140950705,38.62333389213941,69.12129042280507,93.7515614353768,111.1399975041914,121.05077312575649,124.406949160472,120.79567033315031,110.2567763746267,81.36783090866095,64.45040327052729,30.87097207501801,11.6968164579602,0.0,0.0,0.0,0.0,0.0,0.0,0.0,0.0,0.0,0.0,0.0,9.557679942630337,39.38864226995794,61.801061169985076,80.60252253084242,101.189703439943,87.21623913764105,90.90591227402555,96.8131162348028,86.17622938995062,85.35180399218308,62.90018793762452,24.551555415356997,12.030634847781124,0.0,0.0,0.0,0.0,0.0,0.0,0.0,0.0,0.0,0.0,0.0,9.145467243746557,37.64179858809425,60.97663577221751,83.11435330237273,101.38601050075205,109.76616936668007,118.26391969620241,110.43348485817005,101.07211197634874,97.65714020983609,73.00727061999864,42.52859137844679,12.069832002312555,0.0,0.0,0.0,0.0,0.0,0.0,0.0,0.0,0.0,0.0,0.0,10.048286950576973,30.812176343220873,61.05535136943225,82.72206046890658,96.32250922685616,105.114880791668,113.04362980418081,105.89978774675222,104.42796672291232,85.78361526833257,56.58077127796349,37.77930991710614,12.285737640387303,0.0,0.0,0.0,0.0,0.0,0.0,0.0,0.0,0.0,0.0,0.0,10.067885527842686,37.95601840064946,54.73593470977122,80.91642105524575,91.43603772465552,78.71848880811874,41.822078732425396,76.0296282648932,95.40009094276007,76.71654233364887,59.99542175632424,37.54380570176568,12.462124835778726,0.0,0.0,0.0,0.0,0.0,0.0,0.0,0.0,0.0,0.0,0.0,10.401703917663614,36.9944029620219,65.3728215546234,82.07434355468234,100.85588505012207,105.19359638888274,114.02484382007408,102.72032019558006,91.02350373761983,72.8109635591896,57.424473964844864,36.60178884040383,4.965187099415396,0.0,0.0,0.0,0.0,0.0,0.0,0.0,0.0,0.0,0.0,0.0,9.498884210833195,39.643745062564115,70.71102419839116,95.3216966336972,112.29792000362801,121.9339942553212,124.7208476848753,121.48258440190598,111.45389602859473,95.12538957288817,71.41753684441255,41.88119575237445,13.443660139823894,0.0,0.0,0.0,0.0,0.0,0.0,0.0,0.0,0.0,0.0,0.0,9.753987003439374,39.40824084722365,69.69061302796646,94.22289115420963,111.25758896778568,120.69767744682173,58.83749925688765,67.08046808195567,83.27146320865036,94.06578124793201,69.76900733702932,41.09596750913831,12.482044701196337,0.0,0.0,0.0,0.0,0.0,0.0,0.0,0.0,0.0,0.0,0.0,11.422115088088312,21.548796347728132,68.1596749841775,92.22062339158786,109.2167666269363,92.25982054611929,86.09751379273588,53.85271358020654,13.011848863674398,43.784828052363856,48.18101383476974,34.01124247165876,12.737147493802508,0.0,0.0,0.0,0.0,0.0,0.0,0.0,0.0,0.0,0.0,0.0,10.49969680399218,40.42865201764835,72.88935786825245,98.57955849393223,116.49779872522488,126.74239273661087,129.78434895877115,108.74543690810349,117.36109998937195,99.36446544901645,74.77371287912804,44.07912799950146,13.600448757949605,0.0,0.0,0.0,0.0,0.0,0.0,0.0,0.0,0.0,0.0,0.0,10.990303811938817,39.0352253028713,69.18040744275412,93.2413558501645,110.15846220014623,119.7556605854599,123.09191675475779,120.38377892241844,110.74738338257332,94.53678967861296,51.909884125685714,35.40466918643581,14.09105576589624,0.0,0.0,0.0,0.0,0.0,0.0,0.0,0.0,0.0,0.0,0.0,10.735201019332642,39.545752176235546,44.80523922278854,94.73277545127009,61.58515553191032,122.40500268600212,123.68083793718486,94.37967977233535,111.49309318312616,94.870286780282,71.96726087230822,42.80361403647057,13.8950699932391,0.0,0.0,0.0,0.0,0.0,0.0,0.0,0.0,0.0,0.0,0.0,10.735201019332642,39.133539477351775,69.6122187189036,94.22289115420963,110.13886362288052,90.3169910915985,124.50494204680055,119.99116480080036,110.4922805899672,94.39927834960106,70.94652841373161,42.43059849211821,14.287362826705275,0.0,0.0,0.0,0.0,0.0,0.0,0.0,0.0,0.0,0.0,0.0,11.088617986419285,28.00572433640105,68.90570607288223,92.59363893594023,109.09885387519013,118.81364372409806,121.71808861724644,118.04801405812763,108.58864828997775,68.33638346772084,48.43611662737592,40.35025770858549,13.109841750002966,0.0,0.0,0.0,0.0,0.0,0.0,0.0,0.0,0.0,0.0,0.0,11.088617986419285,38.54461829492465,68.14007640691182,92.45644889508024,109.510745285922,65.07852160748581,86.90234061323774,19.076162730729248,105.01688790533942,93.94786849618586,73.18397910354194,43.568922414289105,13.502455871621034,0.0,0.0,0.0,0.0,0.0,0.0,0.0,0.0,0.0,0.0,0.0,10.85311377107882,38.701728201202265,69.41591165809457,93.79075858990824,111.1203989269257,83.70327448479985,125.64326596897145,99.65908668430595,47.336989859736484,5.043902696630148,7.7128433744380755,7.124243480162869,4.180280144331158,0.0,0.0,0.0,0.0,0.0,0.0,0.0,0.0,0.0,0.0,0.0,10.85311377107882,38.740925355733694,68.55228910579558,93.12344309841828,110.43348485817005,103.64273847967618,53.87231215747224,80.60252253084242,112.14081009735041,94.5955854104101,71.57464675069015,36.93528594207286,15.033072627258086,0.0,0.0,0.0,0.0,0.0,0.0,0.0,0.0,0.0,0.0,0.0,6.182226618801026,37.89722266885232,67.35516945182756,74.40069733477569,109.37355524506201,76.87365223992647,48.396919472844495,73.0856649290615,93.33934873649305,61.801061169985076,16.91742763813367,1.079528190373737,13.914668570504816,0.0,0.0,0.0,0.0,0.0,0.0,0.0,0.0,0.0,0.0,0.0,10.85311377107882,38.289515502318494,68.72899758933889,93.7123642808454,109.43235097685915,85.9407251746102,61.31045416203843,90.57209388420465,94.63478256494152,94.67397971947297,69.4355102353603,18.40884723923929,8.360560288662317,0.0,0.0,0.0,0.0,0.0,0.0,0.0,0.0,0.0,0.0,0.0,10.833193905661213,38.40742825406467,68.45429621946703,93.02545021208971,110.31557210642383,80.52380693362767,28.00572433640105,107.35201019332642,97.26484737636991,71.0644411654778,8.419356020459459,14.758371257386196,10.6764052875355,0.0,0.0,0.0,0.0,0.0,0.0,0.0,0.0,0.0,0.0,0.0,6.692432204013375,24.21805831368796,20.214486652900128,22.000206201143346,36.60178884040383,52.08627132107712,100.7578921637935,88.39376021434333,26.76940752790161,5.102698428427289,22.805033021645198,16.544412093781315,9.969892641514118,0.0,0.0,0.0,0.0,0.0,0.0,0.0,0.0,0.0,0.0,0.0,10.558492535789323,38.348311234115634,68.59148626032703,93.6339699717825,109.0792552979244,97.85312598249321,122.97432529116352,119.22585642298182,109.51106657407391,93.7123642808454,72.71297067286103,43.86322236142671,14.38567700118574,0.1375113290118927,0.0,0.0,0.0,0.0,0.0,0.0,0.0,0.0,0.0,0.0,9.282978572758447,38.348311234115634,69.76900733702932,95.3216966336972,113.80925947015123,90.69000663595081,113.53423681212746,87.019932076832,102.3476259393796,91.57322776551551,73.73338184328573,43.43141108527721,15.916293756822787,0.1375113290118927,0.0,0.0,0.0,0.0,0.0,0.0,0.0,0.0,0.0,0.0,8.635261658534205,38.093208441509454,67.94409063425465,85.66602380473829,109.15764960698726,105.3699835842742,100.95419922460256,112.90611847516891,77.65855919501072,81.09312953878906,72.69337209559531,44.216639328513345,14.366078423920026,0.15710990627760638,0.0,0.0,0.0,0.0,0.0,0.0,0.0,0.0,0.0,0.0,10.303389743183148,39.4866351562865,70.7701412183402,95.22370374736862,101.7394274678387,107.15570313251742,131.4132798888887,127.01677281833088,117.20431137124628,100.7578921637935,74.47909164383853,45.3154448080009,14.110975631313849,0.29429994713760216,0.0,0.0,0.0,0.0,0.0,0.0,0.0,0.0,0.0,0.0,9.027875780152275,31.89170453359461,57.50318956205963,83.46777026945936,98.22614152684557,106.92052020532878,112.94563691785227,120.38345763426656,110.33517068368955,94.75237402853581,72.18316651038296,43.92201809322385,14.562064196577161,0.11791275174617903,0.0,0.0,0.0,0.0,0.0,0.0,0.0,0.0,0.0,0.0,9.577278519896053,35.3850706091701,57.09097686317585,55.08903038870598,46.767988542726975,76.3435267892965,104.29077668205231,76.3435267892965,96.7543205030057,78.24748037743781,61.01615421490083,15.268576842598545,12.50164327846205,0.0,0.0,0.0,0.0,0.0,0.0,0.0,0.0,0.0,0.0,0.0,9.282978572758447,29.30115816484954,69.20000602001983,33.912928297178304,12.56043901025919,9.204262975543696,37.64179858809425,70.7701412183402,120.03036195533178,86.76482928422584,55.99185009553639,39.89884785517029,16.132199394897533,0.31389852440331584,0.0,0.0,0.0,0.0,0.0,0.0,0.0,0.0,0.0,0.0,0.0,8.83156871934324,35.36547203190438,54.2453277018246,97.87272455975894,113.71094529567078,130.27495596671778,108.45113696096588,95.67479231263194,52.518082597226616,65.25523009102912,33.83453398811544,14.503268464780021,0.15710990627760638,0.0,0.0,0.0,0.0,0.0,0.0,0.0,0.0,0.0,0.0,8.733254544862774,37.79890849437185,57.40487538757915,92.55444178140881,109.23604391605015,119.28433086662709,108.90286810253298,103.3879569752219,111.37550171953188,94.36008119506964,72.00645802683964,44.197040751247634,14.974276895460944,0.29429994713760216,0.0,0.0,0.0,0.0,0.0,0.0,0.0,0.0,0.0,0.0,10.14660112505744,37.42621423817139,67.72786370802801,92.29933898880265,110.00167358202054,120.95278023942792,124.21064209966295,73.14478194901052,113.7305438729365,96.24411491779331,69.80820449156076,45.021144860863295,14.993875472726655,0.4710084306809222,0.0,0.0,0.0,0.0,0.0,0.0,0.0,0.0,0.0,0.0,9.45968705630177,37.249505754628075,68.19919342686084,80.28830271828724,61.38884847110129,24.512358260825568,123.50830619961624,121.87519852352408,117.36109998937195,82.25105203822567,24.43396395176271,35.12996781656393,15.131386801738547,0.4710084306809222,0.0,0.0,0.0,0.0,0.0,0.0,0.0,0.0,0.0,0.0,9.832381312502225,36.73930016941573,67.29637372003043,92.59363893594023,111.55188891492331,122.05190700706736,124.8577164375834,19.743478222219203,14.424874155717163,44.45182225570189,57.28728392398488,31.538287566507968,10.637208133004071,0.0,0.0,0.0,0.0,0.0,0.0,0.0,0.0,0.0,0.0,0.0,8.438954597725171,36.79809590121287,67.57107508990231,93.04504878935543,111.19879323598856,26.121690613677373,23.3936329159204,22.35362316822999,41.56697593981923,54.00950219833225,57.640379602919616,43.882820938692404,15.111788224472836,0.0,0.0,0.0,0.0,0.0,0.0,0.0,0.0,0.0,0.0,0.0,6.005518135257707,33.71694252452116,64.58791459953916,92.53484320414309,78.14916620295735,33.912928297178304,91.0434236030375,94.14417555699491,74.47909164383853,76.44184096377698,36.97480438475619,44.53053785291665,8.497750329522313,0.0,0.0,0.0,0.0,0.0,0.0,0.0,0.0,0.0,0.0,0.0,10.538893958523607,21.156503514261967,54.30412343362174,72.16356793311725,4.101885835268304,9.45968705630177,13.502455871621034,29.045734084091464,61.66387112912507,92.59396022409211,59.44601901658046,2.041143629001295,15.288496708016154,0.0,0.0,0.0,0.0,0.0,0.0,0.0,0.0,0.0,0.0,0.0,9.184664398277985,36.366284625063365,66.31483841598526,91.21981079842888,108.01964697296827,122.83681396215162,126.38897576952424,118.16592680987381,109.02045956612726,80.72011399443672,70.98572556826305,43.45100966254292,16.838712040918914,0.0,0.0,0.0,0.0,0.0,0.0,0.0,0.0,0.0,0.0,0.0,9.675592694376515,34.99245648755203,63.567503429114474,90.02269114446086,109.05965672065871,94.49727123592965,103.15213147172956,121.67889146271506,111.25758896778568,94.26176702058918,69.2979989063484,42.56810982113011,14.581984061994774,0.0,0.0,0.0,0.0,0.0,0.0,0.0,0.0,0.0,0.0,0.0,9.538081365364624,35.28675643468964,64.1757019006554,88.4724758115581,94.77197260580152,108.78463406263492,104.85977799906179,103.5251470160819,92.98625305755829,80.97521678704288,62.448778084209316,42.352204183055356,15.916293756822787,0.0,0.0,0.0,0.0,0.0,0.0,0.0,0.0,0.0,0.0,0.0,9.145467243746557,34.59984236593397,62.80219505129594,86.50972649161966,104.93817230812469,87.90315320639671,73.34108900981957,117.85202828547052,17.957437385824086,28.37873988075341,31.89170453359461,44.11832515403288,14.817488277335231,0.0,0.0,0.0,0.0,0.0,0.0,0.0,0.0,0.0,0.0,0.0,9.204262975543696,34.77655084947728,63.371196368305434,87.21623913764105,104.6830695155185,115.12397058771354,78.03157473936307,73.24277483533909,109.51106657407391,92.84874172854641,70.94652841373161,44.1575223085643,16.819113463653203,0.11791275174617903,0.0,0.0,0.0,0.0,0.0,0.0,0.0,0.0,0.0,0.0,8.674458813065634,35.32627487737296,65.196434359232,90.14060389620704,107.9213327984878,118.16592680987381,110.00167358202054,104.01575402402855,63.80300764445493,82.78085620070371,65.92254558251908,41.58657451708495,16.46601778471846,0.11791275174617903,0.0,0.0,0.0,0.0,0.0,0.0,0.0,0.0,0.0,0.0,8.340961711396604,33.481438309180696,52.832302409781846,80.03319992568103,98.89345701833555,95.22370374736862,98.18694437231414,71.51585101889302,87.05945051951534,73.34108900981957,64.0581104370611,41.52777878528779,5.730816765385817,0.0,0.0,0.0,0.0,0.0,0.0,0.0,0.0,0.0,0.0,0.0,2.1195379380641497,11.245406604544993,31.538287566507968,36.523394531340976,74.65580012738188,104.13366677577473,97.16653320188944,96.6364077512595,87.86395605186529,67.45316233815613,46.88558000632128,35.75776486537057,13.757558664227211,0.0,0.0,0.0,0.0,0.0,0.0,0.0,0.0,0.0,0.0,0.0,8.596064504002777,21.961009046611924,34.01124247165876,58.87701769957096,89.41449267291996,90.12100531894134,84.15468433821505,104.97736946265609,103.68193563420759,77.6193620404793,61.68346970639079,31.89170453359461,11.324122201759744,0.0,0.0,0.0,0.0,0.0,0.0,0.0,0.0,0.0,0.0,0.0,7.3398278300857225,33.559832618243554,61.7030682836565,85.86200957739544,78.40426899556354,91.12181791210031,39.6241464852984,112.67093554798036,100.01218236324073,72.63457636379817,18.605154300048326,8.203450382384712,0.0,0.0,0.0,0.0,0.0,0.0,0.0,0.0,0.0,0.0,0.0,0.0,8.537268772205637,33.599029772774976,61.76186401545365,86.60771937794823,105.68388210867748,65.03932445295439,106.27280329110461,107.31313432694692,68.41477777678371,85.46971674392925,55.71714872566452,37.229907177362364,10.696003864801213,0.0,0.0,0.0,0.0,0.0,0.0,0.0,0.0,0.0,0.0,0.0,8.02674189884139,34.07003820345591,64.25441749787015,78.93439444619351,91.57322776551551,96.69552477120851,78.91447458077587,74.97001993993706,93.3001515819616,94.69357829673866,64.07770901432683,41.78288157789397,16.348105032972278,0.11791275174617903,0.0,0.0,0.0,0.0,0.0,0.0,0.0,0.0,0.0,0.0,8.262246114181853,33.69734394725545,63.17488930749641,88.37416163707766,106.52790608371076,117.4006184320553,106.80260745358268,120.18715057345752,110.6885876507762,95.34129521096293,72.55586076658342,44.255836483044774,15.013474049992368,0.0,0.0,0.0,0.0,0.0,0.0,0.0,0.0,0.0,0.0,0.0,8.125056073321856,33.559832618243554,55.206943140452175,76.1867381711708,70.98572556826305,29.20284399036907,19.311666946069707,47.55289549781122,93.49645864277063,68.51309195126416,56.384464217154466,43.96153653590717,12.089430579578268,0.0,0.0,0.0,0.0,0.0,0.0,0.0,0.0,0.0,0.0,0.0,6.986732151150979,23.648735708526573,64.31321322966728,36.582190263138116,86.7256321296944,86.21542654448206,20.292880961962982,29.517063802924284,56.32566848535733,54.6771389779741,43.627718146086224,24.31605120001653,4.749281461340648,0.0,0.0,0.0,0.0,0.0,0.0,0.0,0.0,0.0,0.0,0.0,3.5913589619040582,25.0029652687722,9.067072934683699,24.335649777282253,29.20284399036907,55.40325020126119,57.87588381826008,64.25441749787015,67.90457219157135,68.65028199212415,8.635261658534205,21.72550483127146,13.522054448886747,0.0,0.0,0.0,0.0,0.0,0.0,0.0,0.0,0.0,0.0,0.0,2.6297435232764994,19.8806682630792,30.007670810870923,50.08464613475915,114.53537069343832,96.24411491779331,125.48615606269381,82.87917037518417,52.027475589279994,90.94543071670891,73.94928748136046,44.824837800054254,15.621993809685184,0.0,0.0,0.0,0.0,0.0,0.0,0.0,0.0,0.0,0.0,0.0,6.5745194522671975,34.344739573327786,66.94295675294379,96.32250922685616,115.86968038826636,50.948268687058146,105.84099201495508,124.5833363558634,114.53504940528644,99.0110484819298,75.4214297933523,34.2075495324678,14.326559981236699,0.0,0.0,0.0,0.0,0.0,0.0,0.0,0.0,0.0,0.0,0.0,7.143842057428584,33.79533683358401,64.82341881487963,90.53289672967324,108.54945113544636,119.42184219563896,85.78361526833257,121.28627734109695,75.1660057125942,96.4796191331338,72.77176640465818,44.098726576767156,15.896695179557073,0.0,0.0,0.0,0.0,0.0,0.0,0.0,0.0,0.0,0.0,0.0,7.536134890894757,32.8925171267536,53.59761078760035,80.52380693362767,94.86996549213006,106.03729907576414,120.30506332520369,117.4006184320553,54.029422063749855,70.6130313120626,71.49625244162729,43.372615353480064,13.835952973290064,0.0,0.0,0.0,0.0,0.0,0.0,0.0,0.0,0.0,0.0,0.0,7.261433521022866,32.34311438700982,61.879455479047934,87.33415188938723,105.58588922234892,116.43900299342778,120.1874718616094,119.2059365575642,110.00167358202054,94.65438114220724,72.10445091316822,43.51012668249196,15.445285326141866,0.0,0.0,0.0,0.0,0.0,0.0,0.0,0.0,0.0,0.0,0.0,6.476526565938629,32.57861860235028,63.86180337625207,89.92437696998041,80.2687041410215,43.294221044417206,125.25065184735337,120.95278023942792,116.18357891266966,100.13009511498687,76.28473105749937,45.021144860863295,14.38567700118574,0.0,0.0,0.0,0.0,0.0,0.0,0.0,0.0,0.0,0.0,0.0,5.828809651714387,32.44110727333839,59.563610480174745,62.272069600665986,29.02645679497765,74.06720023310666,106.54750466097644,96.49921771039948,79.8172942876063,79.4054028768744,54.00982348648414,36.523394531340976,14.248165672173846,0.0,0.0,0.0,0.0,0.0,0.0,0.0,0.0,0.0,0.0,0.0,5.4361955300963185,26.53390331256115,54.93224177058027,82.42776052176895,91.02382502577177,106.21400755930745,123.17031106382063,103.19132862626098,95.02739668655958,87.86395605186529,72.00645802683964,37.602601433562825,13.541653026152463,0.0,0.0,0.0,0.0,0.0,0.0,0.0,0.0,0.0,0.0,0.0,5.632502590905353,32.3235158097441,64.39160753873014,90.3757868233956,108.72583833083776,119.50055779285374,86.1171123700016,15.602395232419472,53.91150931200367,92.27974041153692,76.10802257395605,39.42783942448937,13.914668570504816,0.0,0.0,0.0,0.0,0.0,0.0,0.0,0.0,0.0,0.0,0.0,6.2998180823953085,25.591886451199304,53.048208047856576,69.63181729616933,95.73358804442907,60.58434293875135,50.04544898022772,70.88773268193448,78.62017463363827,66.94295675294379,44.49134069838523,20.096573901153945,8.14465465058757,0.0,0.0,0.0,0.0,0.0,0.0,0.0,0.0,0.0,0.0,0.0,3.1007519539574218,22.019804778409057,24.178861159156536,25.49357227671884,73.34108900981957,62.566369547803596,63.95979626258065,96.10660358878144,90.47410099787608,86.25462369901348,50.869553089843386,21.254496400590533,13.875471415973387,0.0,0.0,0.0,0.0,0.0,0.0,0.0,0.0,0.0,0.0,0.0,5.8484082289801,31.63660174098844,46.53248432738652,46.45376873017179,109.98207500475479,90.00309256719517,89.39457280750234,122.16949847066168,112.14081009735041,96.73472192573996,51.262167211461446,32.559020025084564,4.513777246000188,0.0,0.0,0.0,0.0,0.0,0.0,0.0,0.0,0.0,0.0,0.0,5.730816765385817,31.656200318254147,62.62548656775263,88.6096658524181,107.03811166892314,117.71451695645858,121.52178155643742,118.754526704149,43.86322236142671,96.12620216604715,71.47665386436158,42.705299861990106,13.85555155055578,0.0,0.0,0.0,0.0,0.0,0.0,0.0,0.0,0.0,0.0,0.0,5.299005489236324,31.322381928433227,62.68428229954977,88.43327865702669,106.58670181550791,117.36109998937195,93.06464736662114,123.97513788432249,109.51106657407391,94.43847550413248,71.84934812056204,42.646504130192966,11.932320673300662,0.0,0.0,0.0,0.0,0.0,0.0,0.0,0.0,0.0,0.0,0.0,4.945588522149684,24.689066744368887,62.527172393272174,88.64886300694954,107.39152863600977,118.02841548086194,121.79648292630932,119.0295493621728,109.76616936668007,69.90651866604121,71.24114964902111,41.684888691565405,13.639967200632926,0.0,0.0,0.0,0.0,0.0,0.0,0.0,0.0,0.0,0.0,0.0,2.9635619130974264,16.603207825578455,53.49929661311989,50.33974892736534,77.24634649612693,96.0278879915667,40.9391788910126,37.5634042790314,48.396919472844495,83.03595899330989,73.14478194901052,42.48939422391537,13.8950699932391,0.0,0.0,0.0,0.0,0.0,0.0,0.0,0.0,0.0,0.0,0.0,5.141895582958717,30.615869282411836,62.54677097053789,89.41449267291996,107.39152863600977,94.04618267066631,123.97513788432249,85.46939545577736,65.58872719269816,76.99124370352077,71.81015096603059,41.88119575237445,12.20702204317255,0.0,0.0,0.0,0.0,0.0,0.0,0.0,0.0,0.0,0.0,0.0,5.181092737490144,30.596270705146125,62.68428229954977,89.0
...